Circuit: * Y:\Projects\Energy Meter\Schematics\Energry Meter Simulation.asc

Warning: Multiple definitions of model "di_s3m" Type: Diode
Warning: Multiple definitions of model "di_s3k" Type: Diode
Warning: Multiple definitions of model "di_s3gb" Type: Diode
Warning: Multiple definitions of model "s3bb" Type: Diode
Warning: Multiple definitions of model "di_s3a" Type: Diode
WARNING: Less than two connections to node N011.  This node is used by R8.
Instance "m:u4:22": Length shorter than recommended for a level 1 MOSFET.
Instance "m:u4:21": Length shorter than recommended for a level 1 MOSFET.
Instance "m:u4:17": Length shorter than recommended for a level 1 MOSFET.
Instance "m:u4:16": Length shorter than recommended for a level 1 MOSFET.
Instance "m:u4:23": Length shorter than recommended for a level 1 MOSFET.
Instance "m:u4:19": Length shorter than recommended for a level 1 MOSFET.
Instance "m:u4:18": Length shorter than recommended for a level 1 MOSFET.
Instance "m:u4:5": Length shorter than recommended for a level 1 MOSFET.
Instance "m:u4:4": Length shorter than recommended for a level 1 MOSFET.
Instance "m:u4:3": Length shorter than recommended for a level 1 MOSFET.
Instance "m:u4:2": Length shorter than recommended for a level 1 MOSFET.
Instance "m:u4:8": Length shorter than recommended for a level 1 MOSFET.
Instance "m:u4:1": Length shorter than recommended for a level 1 MOSFET.
Instance "m:u2:22": Length shorter than recommended for a level 1 MOSFET.
Instance "m:u2:21": Length shorter than recommended for a level 1 MOSFET.
Instance "m:u2:17": Length shorter than recommended for a level 1 MOSFET.
Instance "m:u2:16": Length shorter than recommended for a level 1 MOSFET.
Instance "m:u2:23": Length shorter than recommended for a level 1 MOSFET.
Instance "m:u2:19": Length shorter than recommended for a level 1 MOSFET.
Instance "m:u2:18": Length shorter than recommended for a level 1 MOSFET.
Instance "m:u2:5": Length shorter than recommended for a level 1 MOSFET.
Instance "m:u2:4": Length shorter than recommended for a level 1 MOSFET.
Instance "m:u2:3": Length shorter than recommended for a level 1 MOSFET.
Instance "m:u2:2": Length shorter than recommended for a level 1 MOSFET.
Instance "m:u2:8": Length shorter than recommended for a level 1 MOSFET.
Instance "m:u2:1": Length shorter than recommended for a level 1 MOSFET.
Instance "m:u1:22": Length shorter than recommended for a level 1 MOSFET.
Instance "m:u1:21": Length shorter than recommended for a level 1 MOSFET.
Instance "m:u1:17": Length shorter than recommended for a level 1 MOSFET.
Instance "m:u1:16": Length shorter than recommended for a level 1 MOSFET.
Instance "m:u1:23": Length shorter than recommended for a level 1 MOSFET.
Instance "m:u1:19": Length shorter than recommended for a level 1 MOSFET.
Instance "m:u1:18": Length shorter than recommended for a level 1 MOSFET.
Instance "m:u1:5": Length shorter than recommended for a level 1 MOSFET.
Instance "m:u1:4": Length shorter than recommended for a level 1 MOSFET.
Instance "m:u1:3": Length shorter than recommended for a level 1 MOSFET.
Instance "m:u1:2": Length shorter than recommended for a level 1 MOSFET.
Instance "m:u1:8": Length shorter than recommended for a level 1 MOSFET.
Instance "m:u1:1": Length shorter than recommended for a level 1 MOSFET.
Early termination of direct N-R iteration.
Direct Newton iteration failed to find .op point.  (Use ".option noopiter" to skip.)
Starting Gmin stepping
Gmin = 10
Gmin = 1.07374
Gmin = 0.115292
Gmin = 0.0123794
vernier = 0.5
vernier = 0.25
Gmin = 0.00424207
vernier = 0.125
vernier = 0.0625
vernier = 0.03125
vernier = 0.015625
vernier = 0.0078125
Gmin = 0.00449842
vernier = 0.00390625
vernier = 0.00195313
vernier = 0.000976563
vernier = 0.000488281
Gmin = 0.00449512
Gmin = 0
Gmin stepping succeeded in finding the operating point.


Date: Thu Mar 10 17:33:26 2011
Total elapsed time: 8.379 seconds.

tnom = 27
temp = 27
method = modified trap
totiter = 38182
traniter = 36750
tranpoints = 9164
accept = 6847
rejected = 2317
matrix size = 292
fillins = 505
solver = Normal
Thread vector: 101.7/91.0[2] 56.2/36.1[2] 15.8/15.2[1] 8.1/18.4[1]  2592/500
Matrix Compiler1: 40.8 KB object code size  40.7/26.5/[12.2]
Matrix Compiler2: 33.7 KB object code size  18.0/21.1/[7.5]


